<?xml version="1.0" encoding="UTF-8"?>
<routes xmlns:xsi="http://www.w3.org/2001/XMLSchema-instance" xsi:noNamespaceSchemaLocation="http://sumo.dlr.de/xsd/routes_file.xsd">
    <!-- Vehicle types -->
    <vType id="passenger_car" length="5" maxSpeed="40" accel="2.6" decel="4.5" sigma="0.5"/>
    
    <!-- Routes -->
    <route id="highway_route" edges="highway_in highway_out"/>
    <route id="ramp_route" edges="ramp highway_out"/>
    
    <!-- Traffic flows -->
    <flow id="highway_traffic" type="passenger_car" route="highway_route" begin="0" end="3600" vehsPerHour="1800" departLane="random" departSpeed="max"/>
    <flow id="ramp_traffic" type="passenger_car" route="ramp_route" begin="0" end="3600" vehsPerHour="600" departLane="0" departSpeed="max"/>
</routes>
